26
F:\CADD\cross-dock-new\Ligands_Ã·»°\tmp\4WOT_protein_6ED6_ligands_out.pdb
O          6.11300       28.51700       54.89900
C          6.55500       27.71400       55.68900
N          6.75900       28.05800       57.00200
C          6.80700       26.30800       55.30500
C          7.25900       25.99100       54.01800
C          7.61700       24.66900       53.71000
C          7.52100       23.65600       54.69000
C          7.01400       23.99900       55.95200
C          6.65500       25.30600       56.25700
C          7.93800       22.26900       54.40300
C          8.01000       21.80000       53.04700
C          8.43500       20.47700       52.81800
N          8.79100       19.60400       53.81500
C          8.73300       20.06100       55.10200
C          8.31600       21.37000       55.45100
C          6.57800       29.41300       57.51400
C          7.85900       30.12600       57.81100
C          7.82800       31.13100       58.79100
C          9.00200       31.80000       59.14900
O          6.60700       31.44600       59.36800
C         10.25500       31.44600       58.56600
O          8.93400       32.87400       60.01100
C         10.26900       30.46000       57.56300
C          9.07900       29.83100       57.18400
C          7.92200       32.73300       61.00200
C          6.55700       32.49900       60.33400
