38
F:\CADD\cross-dock-new\Ligands_Ã·»°\4WOT_ligands.pdb
C          8.28400       21.76500       53.42000
C          8.71700       20.49400       53.09300
C          8.81500       19.89800       55.33200
C          8.38200       21.14700       55.73600
C          8.12800       22.12400       54.76100
C          7.34400       25.48700       56.29100
C          5.97600       25.63900       56.05600
C          5.30000       29.25200       56.74800
C          7.50100       27.85100       56.87700
C          8.09100       26.59200       56.70600
C          8.39200       28.96700       57.33000
C         10.44500       30.22100       57.15100
C          8.82100       30.83800       58.85900
C          8.01000       29.78400       58.40300
O          9.14800       32.67500       60.24000
C          5.17700       33.95400       62.76600
C          6.04900       34.17600       63.84100
C          7.27800       33.55100       63.86100
C          7.64600       32.70900       62.82100
C          3.86800       34.64600       62.78700
C          3.47100       35.96700       60.81300
F          8.02400       22.66600       52.45600
N          8.96900       19.60600       54.04600
N          7.64800       23.40500       55.05300
C          7.98900       24.16400       56.12700
O          8.80600       23.80300       56.96000
C          5.38000       26.87100       56.21700
C          6.10900       27.98000       56.61800
N          4.52300       29.16300       57.99600
C          9.62900       29.18800       56.71500
C         10.05300       31.04200       58.20400
C          8.40200       31.74400       59.97800
N          7.22700       31.60300       60.68900
C          6.81600       32.47100       61.73100
C          5.56400       33.09600       61.70800
F          8.84000       32.11400       62.84300
O          2.90000       34.11700       63.30100
O          3.75900       35.88000       62.25500
