24
F:\CADD\cross-dock-new\Ligands_Ã·»°\6P5P_ligands.pdb
N         44.09700      -21.49500        3.13800
C         43.28800      -19.62900        2.29100
C         43.61700      -19.42800        3.65000
C         43.46300      -18.17400        4.41200
C         43.16600      -15.90600        4.72000
C         43.15800      -15.25500        7.06200
C         43.26100      -16.27900        6.06700
C         43.63700      -11.21600        5.50700
C         42.75400       -9.99100        5.83400
C         41.10300      -10.60500        4.02800
C         40.83400      -11.51000        6.25500
C         44.59400      -20.87900        5.53000
C         44.11400      -20.60500        4.13400
N         43.57600      -20.87000        1.99800
C         43.28400      -16.98000        3.84000
N         42.98700      -14.57800        4.41400
C         42.91400      -13.65000        5.31800
N         42.98600      -13.96000        6.65900
O         43.22800      -15.53600        8.25600
S         43.49800      -18.03300        6.17300
C         42.73300      -12.23200        4.78900
C         42.04400       -9.50500        4.54300
N         41.30900      -11.79100        4.87500
C         41.69000      -10.39200        6.87600
